
  NIST    06301515063D 1   1.00000  -269.55668
Copyright by the U.S. Sec. Commerce on behalf of U.S.A. All rights reserved.
 13 12  0  0  0  0  0  0  0  0999 V2000
    1.0003    2.0505    1.2298 C    0  0  0  0  0  0  0  0  0  0  0  0
    1.6167    3.2158    0.6619 O    0  0  0  0  0  0  0  0  0  0  0  0
    1.9842    0.8895    1.1354 C    0  0  0  0  0  0  0  0  0  0  0  0
    3.2981    1.1469    1.8851 C    0  0  0  0  0  0  0  0  0  0  0  0
    4.1136    2.1208    1.2591 O    0  0  0  0  0  0  0  0  0  0  0  0
    0.0703    1.8109    0.6924 H    0  0  0  0  0  0  0  0  0  0  0  0
    0.7421    2.2317    2.2855 H    0  0  0  0  0  0  0  0  0  0  0  0
    1.0489    3.9812    0.8361 H    0  0  0  0  0  0  0  0  0  0  0  0
    2.2102    0.6867    0.0812 H    0  0  0  0  0  0  0  0  0  0  0  0
    1.4929   -0.0037    1.5453 H    0  0  0  0  0  0  0  0  0  0  0  0
    3.8898    0.2250    1.9226 H    0  0  0  0  0  0  0  0  0  0  0  0
    3.0683    1.4232    2.9315 H    0  0  0  0  0  0  0  0  0  0  0  0
    3.5208    2.8609    1.0374 H    0  0  0  0  0  0  0  0  0  0  0  0
  1  2  1  0  0  0  0
  1  3  1  0  0  0  0
  1  6  1  0  0  0  0
  1  7  1  0  0  0  0
  2  8  1  0  0  0  0
  3  4  1  0  0  0  0
  3  9  1  0  0  0  0
  3 10  1  0  0  0  0
  4  5  1  0  0  0  0
  4 11  1  0  0  0  0
  4 12  1  0  0  0  0
  5 13  1  0  0  0  0
M  END
> <COPYRIGHT>
Collection (C) 2016 copyright by the U.S. Secretary of Commerce on behalf of the United States of America. All rights reserved.

> <DATE>
2015-06-30

> <CAS.NUMBER>
504-63-2

> <METHOD>
B3LYP/6-31G*

> <DIPOLE.MOMENT>
3.5777 debye

> <ELECTRONIC.ENERGY>
-269.556683196 hartree

> <IR.FREQUENCIES>
"Frequency (cm-1)"   "Intensity (km/mol)"
116.0727  0.5416
215.7133  2.3669
285.6056  69.6411
337.3965  19.8250
390.1989  4.0264
510.4194  2.5477
563.7332  163.0336
823.7374  7.2602
914.9838  17.8934
922.4859  0.5991
968.3589  1.6328
1088.1538  41.1543
1106.3102  93.8222
1144.9346  26.1004
1212.3385  50.6548
1236.9360  17.1923
1293.0005  2.7833
1321.0472  31.4891
1396.3256  0.1406
1411.6674  1.7583
1469.5490  6.8343
1483.3111  79.7849
1496.9903  31.1711
1540.8052  0.3071
1553.4792  2.5475
2950.8182  80.2606
2997.6803  61.8250
3031.2431  45.7629
3048.8218  41.0604
3082.8871  57.9364
3095.1474  38.5398
3681.6916  119.4885
3760.7258  17.8944

> <ROTATIONAL.CONSTANTS>
7.64032 GHz
3.94657 GHz
2.87206 GHz

> <SOFTWARE>
Gaussian 09, Revision D.01

> <CONTRIBUTOR>
Ashley Zhang

$$$$
