
  NIST    06301517433D 1   1.00000  -308.87210
Copyright by the U.S. Sec. Commerce on behalf of U.S.A. All rights reserved.
 16 15  0  0  0  0  0  0  0  0999 V2000
    1.6107    1.2545    1.9562 C    0  0  0  0  0  0  0  0  0  0  0  0
    1.1287    2.3802    1.0303 C    0  0  0  0  0  0  0  0  0  0  0  0
    1.4973    3.6767    1.4610 O    0  0  0  0  0  0  0  0  0  0  0  0
    3.1202    0.9463    1.9456 C    0  0  0  0  0  0  0  0  0  0  0  0
    4.0514    2.0104    2.5215 C    0  0  0  0  0  0  0  0  0  0  0  0
    4.1945    3.0862    1.5783 O    0  0  0  0  0  0  0  0  0  0  0  0
    1.0825    0.3332    1.6712 H    0  0  0  0  0  0  0  0  0  0  0  0
    1.2915    1.4946    2.9800 H    0  0  0  0  0  0  0  0  0  0  0  0
    0.0328    2.3688    1.0055 H    0  0  0  0  0  0  0  0  0  0  0  0
    1.4756    2.1820    0.0004 H    0  0  0  0  0  0  0  0  0  0  0  0
    2.4724    3.7128    1.4020 H    0  0  0  0  0  0  0  0  0  0  0  0
    3.4548    0.7229    0.9230 H    0  0  0  0  0  0  0  0  0  0  0  0
    3.2871    0.0321    2.5311 H    0  0  0  0  0  0  0  0  0  0  0  0
    5.0392    1.5667    2.7112 H    0  0  0  0  0  0  0  0  0  0  0  0
    3.6576    2.3857    3.4778 H    0  0  0  0  0  0  0  0  0  0  0  0
    4.7634    3.7635    1.9760 H    0  0  0  0  0  0  0  0  0  0  0  0
  1  2  1  0  0  0  0
  1  4  1  0  0  0  0
  1  7  1  0  0  0  0
  1  8  1  0  0  0  0
  2  3  1  0  0  0  0
  2  9  1  0  0  0  0
  2 10  1  0  0  0  0
  3 11  1  0  0  0  0
  4  5  1  0  0  0  0
  4 12  1  0  0  0  0
  4 13  1  0  0  0  0
  5  6  1  0  0  0  0
  5 14  1  0  0  0  0
  5 15  1  0  0  0  0
  6 16  1  0  0  0  0
M  END
> <COPYRIGHT>
Collection (C) 2016 copyright by the U.S. Secretary of Commerce on behalf of the United States of America. All rights reserved.

> <DATE>
2015-06-30

> <CAS.NUMBER>
110-63-4

> <METHOD>
B3LYP/6-31G*

> <DIPOLE.MOMENT>
3.0679 debye

> <ELECTRONIC.ENERGY>
-308.872098675 hartree

> <IR.FREQUENCIES>
"Frequency (cm-1)"   "Intensity (km/mol)"
79.6259  4.5889
138.2592  11.8146
255.1379  1.4230
300.0624  0.6089
330.3394  1.7808
377.3288  112.1821
451.3536  6.2108
482.5536  2.6492
686.3716  137.6721
771.7924  3.6114
855.1566  8.0215
879.7750  0.1576
945.8260  5.3004
993.3339  24.2164
1044.2308  48.8931
1099.9860  27.8416
1112.2998  65.0725
1142.3897  10.0089
1194.0638  3.7453
1251.9872  16.3800
1283.3776  47.9539
1305.2580  4.0155
1332.7332  16.2265
1401.4681  3.1711
1411.9989  0.5001
1429.4346  9.3846
1466.1079  11.4860
1496.1535  15.9259
1501.2571  1.1040
1509.7691  56.6683
1534.7353  0.4318
1544.3137  1.3809
2971.6320  71.1022
3011.9378  48.9244
3024.6468  15.5972
3034.4909  11.7370
3052.0202  64.0336
3065.8005  40.4409
3077.7860  56.4942
3081.7168  72.9365
3604.5669  275.9145
3750.4182  22.3083

> <ROTATIONAL.CONSTANTS>
4.55933 GHz
2.88583 GHz
1.96777 GHz

> <SOFTWARE>
Gaussian 09, Revision D.01

> <CONTRIBUTOR>
Avi Newman

$$$$
