#n AM1 Opt symm=loose

Optimisation of pbenzoquinone using the AM1 hamiltonian

0 1
8	 2.6884949	0.0000000	0.0000000
8	-2.6884949	0.0000000	0.0000000
6	 1.4529083	0.000	0.0000000
6	-1.4529083	-0.000	-0.0000000
6	 0.6690595	-0.00	-1.254776
6	 0.6690595	0.00	 1.254776
6	-0.6690595	-0.00	-1.254776
6	-0.6690595	0.00	 1.254776
1	 1.2578352	-0.00	-2.18723
1	 1.2578352	0.00	 2.18723
1	-1.2578352	-0.00	-2.18723
1	-1.2578352	0.00	 2.18723







