%chk=anthraquinone-2nh2-om
# zindo(Nstate=10)

title 

0 1
      6           0        0.042121   -0.263909    0.016696
      6           0        0.021263   -0.123297    1.487703
      6           0        1.315754   -0.030468   -0.689858
      8           0       -0.999441   -0.618146   -0.565987
      6           0        2.493281    0.264418    1.504201
      6           0        2.532043    0.030616    0.048287
      8           0        3.490776    0.619789    2.158847
      6           0        1.198294    0.122607    2.202001
      6           0       -1.194914   -0.246085    2.172084
      6           0        3.773183   -0.065999   -0.621242
      6           0        1.152907    0.244314    3.596870
      6           0        1.336801    0.065767   -2.099956
      6           0       -1.233987   -0.123559    3.560189
      6           0       -0.060180    0.120662    4.272521
      6           0        2.607137    0.045955   -2.759339
      6           0        3.771718   -0.046796   -2.052516
      1           0       -2.115505   -0.443265    1.598211
      7           0        4.989815   -0.269610    0.014872
      1           0        2.086979    0.441565    4.148502
      7           0        0.211020    0.269474   -2.885686
      1           0       -2.192536   -0.220834    4.091781
      1           0       -0.089030    0.217070    5.368304
      1           0        2.644975    0.097537   -3.860204
      1           0        4.730792   -0.098846   -2.594238
      1           0        0.292684   -0.035370   -3.829012
      1           0       -0.675829    0.084847   -2.471466
      1           0        5.788989    0.034886   -0.493130
      1           0        5.031713   -0.084454    0.992691


