%chk=anthraquinone-zindo
# zindo(NState=10)

title 

0 1 
C   -0.6696   -1.2662    0.1053 
C   -2.0876   -0.8192   -0.0170 
C    0.3876   -0.2137    0.0944 
O   -0.3836   -2.4543    0.2084 
C   -1.3588    1.5980   -0.1475 
C    0.0592    1.1510   -0.0256 
O   -1.6447    2.7861   -0.2512 
C   -2.4160    0.5456   -0.1370 
C   -3.1053   -1.7801   -0.0108 
C    1.0770    2.1119   -0.0321 
C   -3.7573    0.9295   -0.2492 
C    1.7289   -0.5977    0.2063 
C   -4.4370   -1.3892   -0.1228 
C   -4.7633   -0.0330   -0.2422 
C    2.7350    0.3648    0.1989 
C    2.4087    1.7210    0.0796 
H   -2.8267   -2.8246    0.0833 
H    0.7984    3.1564   -0.1262 
H   -3.9841    1.9867   -0.3410 
H    1.9557   -1.6549    0.2981 
H   -5.2236   -2.1387   -0.1174 
H   -5.8031    0.2698   -0.3298 
H    3.7748    0.0620    0.2863 
H    3.1953    2.4705    0.0739 


