%chk=anthraquinone-2oh-2-zindo
# zindo(Nstate=10)

title 

0 1
        6           0        0.006290    0.000733   -0.002367
        6           0        0.010811   -0.000094    1.476220
        6           0        1.321319    0.000228   -0.678969
        8           0       -1.046368    0.001403   -0.653196
        6           0        2.526974   -0.001672    1.527324
        6           0        2.520002   -0.000813    0.048459
        8           0        3.590293   -0.002291    2.160587
        6           0        1.213324   -0.001111    2.205971
        6           0       -1.214587    0.000231    2.171854
        6           0        3.743900   -0.001143   -0.632440
        6           0        1.162032   -0.001698    3.614117
        6           0        1.360233    0.000897   -2.078981
        6           0       -1.251313   -0.000394    3.579034
        6           0       -0.069234   -0.001339    4.296385
        6           0        2.582664    0.000553   -2.749654
        6           0        3.774421   -0.000463   -2.026429
        8           0       -2.363968    0.001182    1.422177
        1           0        4.680288   -0.001980   -0.049874
        8           0        2.357689   -0.002630    4.287539
        1           0        0.411149    0.001729   -2.640625
        1           0       -2.219718   -0.000110    4.101434
        1           0       -0.085513   -0.001829    5.396587
        1           0        2.603498    0.001094   -3.849846
        1           0        4.740714   -0.000739   -2.552866
        1           0       -3.118457    0.001464    2.031332
        1           0        2.165690   -0.003124    5.238045


