%chk=anthraquinone-2oh-zindo
# zindo(Nstate=10)

title 

0 1
        6           0        0.037245    0.000655   -0.025892
        6           0        0.016920   -0.000093    1.446454
        6           0        1.342810    0.000242   -0.712850
        8           0       -1.010702    0.001580   -0.698959
        6           0        2.533521   -0.001505    1.488996
        6           0        2.540113   -0.000780    0.013743
        8           0        3.614387   -0.002399    2.107819
        6           0        1.236875   -0.001075    2.186793
        6           0       -1.200449    0.000183    2.138644
        6           0        3.765058   -0.001136   -0.665132
        6           0        1.184924   -0.001659    3.586227
        6           0        1.379454    0.000897   -2.112857
        6           0       -1.232842   -0.000455    3.563463
        6           0       -0.063991   -0.001343    4.272790
        6           0        2.602784    0.000536   -2.782802
        6           0        3.794525   -0.000479   -2.059583
        8           0       -2.453124    0.001071    1.593986
        1           0        4.701686   -0.001946   -0.082774
        8           0        2.246409   -0.002588    4.445935
        1           0        0.430445    0.001704   -2.674814
        1           0       -2.214806   -0.000202    4.062486
        1           0       -0.053279   -0.001841    5.374226
        1           0        2.623752    0.001056   -3.883287
        1           0        4.761019   -0.000765   -2.586268
        1           0       -2.419869    0.001359    0.624312
        1           0        3.091194   -0.002645    3.968742

