%chk=Methylcyclopropane-opt
# hf/6-31G* opt freq 

Optimisation de geometrie

0 1
C          1.95790        1.47940        1.71300
C          3.11250        2.13000        0.99010
C          3.06960        0.62730        1.15010
C          0.57840        1.45190        1.08980
H          1.95860        1.59480        2.79640
H          2.92480        2.54100        0.00070
H          3.84150        2.69040        1.56940
H          3.76950        0.16090        1.83850
H          2.85260        0.02840        0.26850
H          0.64200        1.33380        0.00120
H         -0.01990        0.61840        1.47870
H          0.02980        2.38080        1.29040





