%chk=cis-SP
#n AM1 freq=RAMAN

UV-spectra

0 1
 N        -0.163057557463      3.743522744804      3.244119711514
 C         0.887131090285      4.130459577654      4.142321435915
 C         1.782049555186      5.174814835934      3.833252073385
 C         2.705892351168      5.603211176746      4.782642144077
 C         2.759458507240      5.011548678449      6.043497612340
 C         1.879972875350      3.976107563971      6.355156450876
 C         0.955428776535      3.527086252550      5.417583058007
 N         0.163057557463      3.743522744804      1.905880288486
 C        -0.887131090285      4.130459577654      1.007678564085
 C        -1.782049555185      5.174814835934      1.316747926615
 C        -0.955428776535      3.527086252549     -0.267583058007
 C        -2.705892351168      5.603211176747      0.367357855923
 C        -1.879972875350      3.976107563970     -1.205156450876
 C        -2.759458507239      5.011548678449     -0.893497612340
 H        -0.547365807226      2.852379305096      3.540752102559
 H         1.754198952739      5.661171398234      2.845941839252
 H         3.398474591325      6.420490877980      4.530570429962
 H         3.490464591555      5.358486767180      6.787322683063
 H         1.916523000282      3.504016697324      7.348356326760
 H         0.272699192987      2.706793958523      5.686496232391
 H         0.547365807226      2.852379305096      1.609247897441
 H        -1.754198952739      5.661171398235      2.304058160747
 H        -0.272699192988      2.706793958522     -0.536496232391
 H        -3.398474591324      6.420490877980      0.619429570038
 H        -1.916523000283      3.504016697323     -2.198356326760
 H        -3.490464591555      5.358486767180     -1.637322683063




