
  NIST    07011509403D 1   1.00000  -157.22107
Copyright by the U.S. Sec. Commerce on behalf of U.S.A. All rights reserved.
 12 11  0  0  0  0  0  0  0  0999 V2000
    1.3072    2.1408    1.6685 C    0  0  0  0  0  0  0  0  0  0  0  0
    0.4723    2.8866    0.9441 C    0  0  0  0  0  0  0  0  0  0  0  0
    1.9672    0.8703    1.2054 C    0  0  0  0  0  0  0  0  0  0  0  0
    3.5030    0.9581    1.2204 C    0  0  0  0  0  0  0  0  0  0  0  0
    1.5603    2.4625    2.6811 H    0  0  0  0  0  0  0  0  0  0  0  0
    0.0330    3.8007    1.3349 H    0  0  0  0  0  0  0  0  0  0  0  0
    0.1933    2.6089   -0.0708 H    0  0  0  0  0  0  0  0  0  0  0  0
    1.6555    0.0408    1.8580 H    0  0  0  0  0  0  0  0  0  0  0  0
    1.6179    0.6210    0.1954 H    0  0  0  0  0  0  0  0  0  0  0  0
    3.9542    0.0095    0.9081 H    0  0  0  0  0  0  0  0  0  0  0  0
    3.8566    1.7437    0.5435 H    0  0  0  0  0  0  0  0  0  0  0  0
    3.8766    1.1913    2.2248 H    0  0  0  0  0  0  0  0  0  0  0  0
  1  2  2  0  0  0  0
  1  3  1  0  0  0  0
  1  5  1  0  0  0  0
  2  6  1  0  0  0  0
  2  7  1  0  0  0  0
  3  4  1  0  0  0  0
  3  8  1  0  0  0  0
  3  9  1  0  0  0  0
  4 10  1  0  0  0  0
  4 11  1  0  0  0  0
  4 12  1  0  0  0  0
M  END
> <COPYRIGHT>
Collection (C) 2016 copyright by the U.S. Secretary of Commerce on behalf of the United States of America. All rights reserved.

> <DATE>
2015-07-01

> <CAS.NUMBER>
106-98-9

> <METHOD>
B3LYP/6-31G*

> <DIPOLE.MOMENT>
0.3372 debye

> <ELECTRONIC.ENERGY>
-157.221071542 hartree

> <IR.FREQUENCIES>
"Frequency (cm-1)"   "Intensity (km/mol)"
110.0155  0.0707
238.5983  0.0296
316.5588  0.4184
432.5449  0.7905
653.1953  7.8057
802.5226  2.9000
865.4654  1.7004
937.2484  37.5430
997.0994  2.4175
1028.4853  3.4156
1041.9650  8.0818
1104.4513  2.9581
1211.8385  0.2398
1304.8457  0.0480
1334.2208  2.1315
1364.8096  4.1982
1436.7237  0.7752
1477.0049  1.1316
1511.2038  2.5938
1528.7809  5.2505
1537.4375  3.7219
1734.0222  7.9355
3020.1022  31.5805
3047.1897  31.3687
3068.7437  11.7724
3113.1682  35.6952
3121.5569  36.6102
3133.5354  37.8167
3154.9779  6.2687
3233.2236  23.1491

> <ROTATIONAL.CONSTANTS>
22.67190 GHz
4.11562 GHz
4.01997 GHz

> <SOFTWARE>
Gaussian 09, Revision D.01

> <CONTRIBUTOR>
Avi Newman

$$$$
