
  NIST    06301516423D 1   1.00000  -157.22691
Copyright by the U.S. Sec. Commerce on behalf of U.S.A. All rights reserved.
 12 11  0  0  0  0  0  0  0  0999 V2000
    1.9673    0.9273    0.8805 C    0  0  0  0  0  0  0  0  0  0  0  0
    2.9586    1.6585    1.3965 C    0  0  0  0  0  0  0  0  0  0  0  0
    4.4218    1.3366    1.2869 C    0  0  0  0  0  0  0  0  0  0  0  0
    0.5040    1.2489    0.9905 C    0  0  0  0  0  0  0  0  0  0  0  0
    2.2190    0.0180    0.3305 H    0  0  0  0  0  0  0  0  0  0  0  0
    2.7069    2.5679    1.9464 H    0  0  0  0  0  0  0  0  0  0  0  0
    4.5892    0.4152    0.7185 H    0  0  0  0  0  0  0  0  0  0  0  0
    4.9736    2.1460    0.7893 H    0  0  0  0  0  0  0  0  0  0  0  0
    4.8791    1.2104    2.2780 H    0  0  0  0  0  0  0  0  0  0  0  0
    0.0457    1.3715   -0.0005 H    0  0  0  0  0  0  0  0  0  0  0  0
   -0.0469    0.4409    1.4914 H    0  0  0  0  0  0  0  0  0  0  0  0
    0.3368    2.1721    1.5560 H    0  0  0  0  0  0  0  0  0  0  0  0
  1  2  2  0  0  0  0
  1  4  1  0  0  0  0
  1  5  1  0  0  0  0
  2  3  1  0  0  0  0
  2  6  1  0  0  0  0
  3  7  1  0  0  0  0
  3  8  1  0  0  0  0
  3  9  1  0  0  0  0
  4 10  1  0  0  0  0
  4 11  1  0  0  0  0
  4 12  1  0  0  0  0
M  END
> <COPYRIGHT>
Collection (C) 2016 copyright by the U.S. Secretary of Commerce on behalf of the United States of America. All rights reserved.

> <DATE>
2015-06-30

> <CAS.NUMBER>
624-64-6

> <METHOD>
B3LYP/6-31G*

> <DIPOLE.MOMENT>
0.0005 debye

> <ELECTRONIC.ENERGY>
-157.226910625 hartree

> <IR.FREQUENCIES>
"Frequency (cm-1)"   "Intensity (km/mol)"
182.8676  1.1833
234.0224  0.0000
245.6910  2.8544
283.1632  1.0034
501.7966  0.0000
755.4527  0.0000
884.2043  0.0000
998.3692  14.3541
1010.6964  25.2332
1076.1193  0.0003
1082.9778  0.1487
1086.5618  1.3464
1179.1900  0.0000
1344.6353  5.9794
1345.8821  0.0001
1442.2466  2.5313
1444.0403  0.0001
1510.2220  11.2171
1510.4639  0.0139
1520.0593  0.0000
1527.8728  13.6342
1763.8887  0.0000
3028.5863  75.0641
3029.3106  0.0005
3073.5140  59.8146
3073.7573  0.0040
3110.9539  18.7881
3112.7744  0.0000
3131.7879  0.0000
3139.4283  85.5873

> <ROTATIONAL.CONSTANTS>
34.76882 GHz
3.70219 GHz
3.49033 GHz

> <SOFTWARE>
Gaussian 09, Revision D.01

> <CONTRIBUTOR>
Avi Newman

$$$$
