
  NIST    07011508193D 1   1.00000  -157.22729
Copyright by the U.S. Sec. Commerce on behalf of U.S.A. All rights reserved.
 12 11  0  0  0  0  0  0  0  0999 V2000
    0.9583    0.9922    1.3796 C    0  0  0  0  0  0  0  0  0  0  0  0
    2.0992    1.8923    0.9737 C    0  0  0  0  0  0  0  0  0  0  0  0
    3.4764    1.4300    1.3810 C    0  0  0  0  0  0  0  0  0  0  0  0
    1.9021    3.0272    0.2957 C    0  0  0  0  0  0  0  0  0  0  0  0
    1.0779   -0.0134    0.9527 H    0  0  0  0  0  0  0  0  0  0  0  0
    0.9255    0.8643    2.4706 H    0  0  0  0  0  0  0  0  0  0  0  0
   -0.0089    1.3873    1.0541 H    0  0  0  0  0  0  0  0  0  0  0  0
    3.5503    1.3237    2.4724 H    0  0  0  0  0  0  0  0  0  0  0  0
    3.7022    0.4417    0.9569 H    0  0  0  0  0  0  0  0  0  0  0  0
    4.2541    2.1267    1.0536 H    0  0  0  0  0  0  0  0  0  0  0  0
    2.7287    3.6714    0.0058 H    0  0  0  0  0  0  0  0  0  0  0  0
    0.9066    3.3542    0.0051 H    0  0  0  0  0  0  0  0  0  0  0  0
  1  2  1  0  0  0  0
  1  5  1  0  0  0  0
  1  6  1  0  0  0  0
  1  7  1  0  0  0  0
  2  3  1  0  0  0  0
  2  4  2  0  0  0  0
  3  8  1  0  0  0  0
  3  9  1  0  0  0  0
  3 10  1  0  0  0  0
  4 11  1  0  0  0  0
  4 12  1  0  0  0  0
M  END
> <COPYRIGHT>
Collection (C) 2016 copyright by the U.S. Secretary of Commerce on behalf of the United States of America. All rights reserved.

> <DATE>
2015-07-01

> <CAS.NUMBER>
115-11-7

> <METHOD>
B3LYP/6-31G*

> <DIPOLE.MOMENT>
0.5053 debye

> <ELECTRONIC.ENERGY>
-157.227289180 hartree

> <IR.FREQUENCIES>
"Frequency (cm-1)"   "Intensity (km/mol)"
174.1638  0.0005
208.7128  0.5299
377.9928  0.2730
436.0534  1.6871
436.8421  4.8527
709.4731  0.0000
819.9166  0.0736
920.4023  42.5635
973.7248  0.0517
995.0578  0.2163
1035.9350  0.0004
1098.7749  3.9830
1121.7905  0.8413
1310.4845  4.4505
1439.0618  5.2247
1441.6249  0.0033
1470.4477  0.4470
1500.9372  0.0006
1515.3249  3.9624
1517.4579  14.7366
1532.1555  9.3427
1743.2165  13.1946
3025.6676  19.4333
3031.9553  42.6500
3071.3620  0.0191
3074.9967  55.8463
3125.1007  26.2691
3126.7827  22.0208
3156.7622  9.8790
3232.6609  22.5731

> <ROTATIONAL.CONSTANTS>
9.12003 GHz
8.33573 GHz
4.60280 GHz

> <SOFTWARE>
Gaussian 09, Revision D.01

> <CONTRIBUTOR>
Ashley Zhang

$$$$
