
  NIST    07021514253D 1   1.00000  -157.21315
Copyright by the U.S. Sec. Commerce on behalf of U.S.A. All rights reserved.
 12 12  0  0  0  0  0  0  0  0999 V2000
    1.8261    2.8340    1.0548 C    0  0  0  0  0  0  0  0  0  0  0  0
    0.6848    1.7987    0.8556 C    0  0  0  0  0  0  0  0  0  0  0  0
    1.7268    0.6676    1.0758 C    0  0  0  0  0  0  0  0  0  0  0  0
    2.8498    1.6988    0.7780 C    0  0  0  0  0  0  0  0  0  0  0  0
    1.8791    3.1815    2.0926 H    0  0  0  0  0  0  0  0  0  0  0  0
    1.8430    3.7086    0.3959 H    0  0  0  0  0  0  0  0  0  0  0  0
    0.3083    1.8059   -0.1734 H    0  0  0  0  0  0  0  0  0  0  0  0
   -0.1709    1.8447    1.5375 H    0  0  0  0  0  0  0  0  0  0  0  0
    1.6628   -0.2175    0.4342 H    0  0  0  0  0  0  0  0  0  0  0  0
    1.7489    0.3367    2.1202 H    0  0  0  0  0  0  0  0  0  0  0  0
    3.1511    1.6749   -0.2753 H    0  0  0  0  0  0  0  0  0  0  0  0
    3.7528    1.6632    1.3966 H    0  0  0  0  0  0  0  0  0  0  0  0
  1  4  1  0  0  0  0
  1  5  1  0  0  0  0
  1  6  1  0  0  0  0
  2  1  1  0  0  0  0
  2  7  1  0  0  0  0
  2  8  1  0  0  0  0
  3  2  1  0  0  0  0
  3  9  1  0  0  0  0
  3 10  1  0  0  0  0
  4  3  1  0  0  0  0
  4 11  1  0  0  0  0
  4 12  1  0  0  0  0
M  END
> <COPYRIGHT>
Collection (C) 2016 copyright by the U.S. Secretary of Commerce on behalf of the United States of America. All rights reserved.

> <DATE>
2015-07-02

> <CAS.NUMBER>
287-23-0

> <METHOD>
B3LYP/6-31G*

> <DIPOLE.MOMENT>
0.0001 debye

> <ELECTRONIC.ENERGY>
-157.213151564 hartree

> <IR.FREQUENCIES>
"Frequency (cm-1)"   "Intensity (km/mol)"
192.1881  0.0000
642.6555  2.9816
760.1110  0.4522
760.6783  0.4490
891.7038  0.0003
924.1068  2.0820
924.2092  2.0843
952.1347  0.0003
971.7245  0.0000
1022.8680  0.0000
1182.3794  0.0000
1190.4056  0.0000
1262.5439  0.2518
1262.6060  0.2527
1269.6601  0.0010
1277.4428  0.0000
1308.5490  0.3025
1308.6317  0.3009
1511.8010  0.0818
1512.1744  0.0809
1518.8168  2.8832
1551.0949  0.0000
3061.8004  23.5778
3062.5811  83.2703
3062.6944  68.7507
3069.6437  0.1513
3097.4226  0.0094
3111.3544  19.1283
3111.3789  19.3112
3128.6048  112.8786

> <ROTATIONAL.CONSTANTS>
10.65458 GHz
10.65421 GHz
6.30267 GHz

> <SOFTWARE>
Gaussian 09, Revision D.01

> <CONTRIBUTOR>
Ashley Zhang

$$$$
