
  NIST    06301515243D 1   1.00000  -196.55706
Copyright by the U.S. Sec. Commerce on behalf of U.S.A. All rights reserved.
 15 15  0  0  0  0  0  0  0  0999 V2000
    1.1922    2.9959    1.0423 C    0  0  0  0  0  0  0  0  0  0  0  0
    2.7255    3.0298    0.9305 C    0  0  0  0  0  0  0  0  0  0  0  0
    0.8462    1.4882    1.1293 C    0  0  0  0  0  0  0  0  0  0  0  0
    3.1656    1.9157    1.8944 C    0  0  0  0  0  0  0  0  0  0  0  0
    2.1313    0.7863    1.6682 C    0  0  0  0  0  0  0  0  0  0  0  0
    0.8846    3.5068    1.9643 H    0  0  0  0  0  0  0  0  0  0  0  0
    0.6862    3.5001    0.2116 H    0  0  0  0  0  0  0  0  0  0  0  0
    3.0338    2.7826   -0.0951 H    0  0  0  0  0  0  0  0  0  0  0  0
    3.1552    4.0081    1.1743 H    0  0  0  0  0  0  0  0  0  0  0  0
   -0.0237    1.3088    1.7701 H    0  0  0  0  0  0  0  0  0  0  0  0
    0.5891    1.0986    0.1376 H    0  0  0  0  0  0  0  0  0  0  0  0
    4.1977    1.5851    1.7330 H    0  0  0  0  0  0  0  0  0  0  0  0
    3.1026    2.2836    2.9273 H    0  0  0  0  0  0  0  0  0  0  0  0
    1.9419    0.2184    2.5853 H    0  0  0  0  0  0  0  0  0  0  0  0
    2.5091    0.0701    0.9292 H    0  0  0  0  0  0  0  0  0  0  0  0
  1  2  1  0  0  0  0
  1  6  1  0  0  0  0
  1  7  1  0  0  0  0
  2  4  1  0  0  0  0
  2  8  1  0  0  0  0
  2  9  1  0  0  0  0
  3  1  1  0  0  0  0
  3 10  1  0  0  0  0
  3 11  1  0  0  0  0
  4  5  1  0  0  0  0
  4 12  1  0  0  0  0
  4 13  1  0  0  0  0
  5  3  1  0  0  0  0
  5 14  1  0  0  0  0
  5 15  1  0  0  0  0
M  END
> <COPYRIGHT>
Collection (C) 2016 copyright by the U.S. Secretary of Commerce on behalf of the United States of America. All rights reserved.

> <DATE>
2015-06-30

> <CAS.NUMBER>
287-92-3

> <METHOD>
B3LYP/6-31G*

> <DIPOLE.MOMENT>
0.0063 debye

> <ELECTRONIC.ENERGY>
-196.557064920 hartree

> <IR.FREQUENCIES>
"Frequency (cm-1)"   "Intensity (km/mol)"
21.0190  0.0010
263.9087  0.0022
551.4544  1.2244
619.2592  0.1641
775.1432  0.8747
829.0221  0.2065
875.0531  0.4937
888.0925  0.3900
907.4425  1.4129
914.0338  1.2879
979.9344  0.9328
1011.9508  0.4461
1044.2416  0.0013
1060.7075  0.0083
1191.1762  0.0035
1221.9201  0.4806
1234.6239  0.1447
1255.1048  0.5478
1295.2168  0.8130
1321.5190  0.0132
1340.4051  0.5112
1360.9293  0.0285
1368.1591  0.7625
1370.3003  0.8549
1515.8457  0.1003
1520.9618  3.2359
1526.2776  0.8673
1528.0804  2.2092
1553.6163  0.0610
3034.9581  22.1755
3040.8124  29.5627
3045.4181  38.1024
3052.4936  18.6675
3065.2946  56.3230
3083.6978  38.3448
3093.3181  16.4643
3097.4525  26.0415
3098.3755  25.5881
3113.6054  112.6446

> <ROTATIONAL.CONSTANTS>
6.45688 GHz
6.45622 GHz
3.72447 GHz

> <SOFTWARE>
Gaussian 09, Revision D.01

> <CONTRIBUTOR>
Ashley Zhang

$$$$
