
  NIST    06301518353D 1   1.00000  -235.88046
Copyright by the U.S. Sec. Commerce on behalf of U.S.A. All rights reserved.
 18 18  0  0  0  0  0  0  0  0999 V2000
    1.7967    3.4976    1.1955 C    0  0  0  0  0  0  0  0  0  0  0  0
    1.0353    2.2586    1.6935 C    0  0  0  0  0  0  0  0  0  0  0  0
    1.7000    0.9586    1.2132 C    0  0  0  0  0  0  0  0  0  0  0  0
    3.1844    0.9057    1.6090 C    0  0  0  0  0  0  0  0  0  0  0  0
    3.9458    2.1447    1.1110 C    0  0  0  0  0  0  0  0  0  0  0  0
    3.2811    3.4447    1.5913 C    0  0  0  0  0  0  0  0  0  0  0  0
    1.3316    4.4119    1.5863 H    0  0  0  0  0  0  0  0  0  0  0  0
    1.7180    3.5518    0.0992 H    0  0  0  0  0  0  0  0  0  0  0  0
   -0.0104    2.2962    1.3615 H    0  0  0  0  0  0  0  0  0  0  0  0
    1.0135    2.2669    2.7937 H    0  0  0  0  0  0  0  0  0  0  0  0
    1.6167    0.8950    0.1177 H    0  0  0  0  0  0  0  0  0  0  0  0
    1.1678    0.0875    1.6168 H    0  0  0  0  0  0  0  0  0  0  0  0
    3.6495   -0.0086    1.2181 H    0  0  0  0  0  0  0  0  0  0  0  0
    3.2631    0.8514    2.7052 H    0  0  0  0  0  0  0  0  0  0  0  0
    3.9677    2.1364    0.0109 H    0  0  0  0  0  0  0  0  0  0  0  0
    4.9914    2.1071    1.4431 H    0  0  0  0  0  0  0  0  0  0  0  0
    3.8133    4.3157    1.1876 H    0  0  0  0  0  0  0  0  0  0  0  0
    3.3643    3.5083    2.6868 H    0  0  0  0  0  0  0  0  0  0  0  0
  1  6  1  0  0  0  0
  1  7  1  0  0  0  0
  1  8  1  0  0  0  0
  2  1  1  0  0  0  0
  2  9  1  0  0  0  0
  2 10  1  0  0  0  0
  3  2  1  0  0  0  0
  3 11  1  0  0  0  0
  3 12  1  0  0  0  0
  4  3  1  0  0  0  0
  4 13  1  0  0  0  0
  4 14  1  0  0  0  0
  5  4  1  0  0  0  0
  5 15  1  0  0  0  0
  5 16  1  0  0  0  0
  6  5  1  0  0  0  0
  6 17  1  0  0  0  0
  6 18  1  0  0  0  0
M  END
> <COPYRIGHT>
Collection (C) 2016 copyright by the U.S. Secretary of Commerce on behalf of the United States of America. All rights reserved.

> <DATE>
2015-06-30

> <CAS.NUMBER>
110-82-7

> <METHOD>
B3LYP/6-31G*

> <DIPOLE.MOMENT>
0.0000 debye

> <ELECTRONIC.ENERGY>
-235.880462821 hartree

> <IR.FREQUENCIES>
"Frequency (cm-1)"   "Intensity (km/mol)"
230.9347  0.0208
238.3007  0.0186
382.5120  0.0000
431.1083  0.0000
433.8434  0.0000
526.6356  0.5010
800.9760  0.0000
801.3874  0.0000
808.8644  0.0000
871.0327  1.0575
872.6154  1.0432
925.9355  2.0694
927.8122  2.1169
1042.0329  0.0000
1043.1532  0.0000
1050.4994  1.4923
1082.5257  0.0000
1105.7360  0.0003
1139.4238  0.0000
1195.5899  0.0000
1300.2292  3.0330
1301.2628  2.9759
1304.9817  0.0000
1305.5398  0.0000
1364.0229  0.0000
1394.6001  0.0154
1399.7324  0.0000
1401.8353  0.0000
1404.0088  3.1515
1404.6073  3.1808
1511.9378  0.0000
1512.6779  0.0000
1519.0470  2.6520
1519.6464  2.9944
1523.5237  10.9152
1540.7516  0.0000
3016.4278  30.1136
3016.6630  30.2564
3019.2889  0.0000
3021.9449  0.0000
3022.2083  0.0000
3025.5325  68.7137
3065.6895  121.7465
3065.9533  121.5593
3068.7064  0.0001
3068.9357  0.0002
3069.4392  0.0002
3077.3449  156.2966

> <ROTATIONAL.CONSTANTS>
4.28207 GHz
4.27883 GHz
2.44152 GHz

> <SOFTWARE>
Gaussian 09, Revision D.01

> <CONTRIBUTOR>
Avi Newman

$$$$
