
  NIST    06301516453D 1   1.00000  -157.21202
Copyright by the U.S. Sec. Commerce on behalf of U.S.A. All rights reserved.
 12 12  0  0  0  0  0  0  0  0999 V2000
    1.9579    1.4794    1.7130 C    0  0  0  0  0  0  0  0  0  0  0  0
    3.1125    2.1300    0.9901 C    0  0  0  0  0  0  0  0  0  0  0  0
    3.0696    0.6273    1.1501 C    0  0  0  0  0  0  0  0  0  0  0  0
    0.5784    1.4519    1.0898 C    0  0  0  0  0  0  0  0  0  0  0  0
    1.9586    1.5948    2.7964 H    0  0  0  0  0  0  0  0  0  0  0  0
    2.9248    2.5410    0.0007 H    0  0  0  0  0  0  0  0  0  0  0  0
    3.8415    2.6904    1.5694 H    0  0  0  0  0  0  0  0  0  0  0  0
    3.7695    0.1609    1.8385 H    0  0  0  0  0  0  0  0  0  0  0  0
    2.8526    0.0284    0.2685 H    0  0  0  0  0  0  0  0  0  0  0  0
    0.6420    1.3338    0.0012 H    0  0  0  0  0  0  0  0  0  0  0  0
   -0.0199    0.6184    1.4787 H    0  0  0  0  0  0  0  0  0  0  0  0
    0.0298    2.3808    1.2904 H    0  0  0  0  0  0  0  0  0  0  0  0
  1  2  1  0  0  0  0
  1  4  1  0  0  0  0
  1  5  1  0  0  0  0
  2  3  1  0  0  0  0
  2  6  1  0  0  0  0
  2  7  1  0  0  0  0
  3  1  1  0  0  0  0
  3  8  1  0  0  0  0
  3  9  1  0  0  0  0
  4 10  1  0  0  0  0
  4 11  1  0  0  0  0
  4 12  1  0  0  0  0
M  END
> <COPYRIGHT>
Collection (C) 2016 copyright by the U.S. Secretary of Commerce on behalf of the United States of America. All rights reserved.

> <DATE>
2015-06-30

> <CAS.NUMBER>
594-11-6

> <METHOD>
B3LYP/6-31G*

> <DIPOLE.MOMENT>
0.1075 debye

> <ELECTRONIC.ENERGY>
-157.212022531 hartree

> <IR.FREQUENCIES>
"Frequency (cm-1)"   "Intensity (km/mol)"
225.0656  0.0000
340.3287  0.6554
366.5675  0.1967
774.2422  2.7205
802.2351  3.8667
827.0041  4.9227
876.4189  6.7090
952.0107  3.8763
1006.4776  6.3515
1068.5700  6.5316
1080.7019  1.3045
1120.8224  4.2027
1156.2620  0.3348
1211.0508  0.4008
1221.9996  0.0523
1245.9357  0.1092
1414.5254  3.9722
1451.9800  2.1137
1496.3108  1.1020
1522.4930  1.6186
1530.6499  6.4694
1540.4868  0.6894
3036.3583  36.2368
3097.4207  34.7372
3100.4867  21.6431
3138.3696  27.7127
3142.2247  29.8189
3145.9402  10.2600
3211.4337  0.3314
3226.0185  32.9837

> <ROTATIONAL.CONSTANTS>
15.58124 GHz
6.29309 GHz
5.52728 GHz

> <SOFTWARE>
Gaussian 09, Revision D.01

> <CONTRIBUTOR>
Avi Newman

$$$$
