
  NIST    07011509373D 1   1.00000  -119.14424
Copyright by the U.S. Sec. Commerce on behalf of U.S.A. All rights reserved.
 11 10  0  0  0  0  0  0  0  0999 V2000
    3.3709    1.6468    1.3253 C    0  0  0  0  0  0  0  0  0  0  0  0
    2.0046    1.0757    0.9328 C    0  0  0  0  0  0  0  0  0  0  0  0
    0.9486    1.2446    2.0298 C    0  0  0  0  0  0  0  0  0  0  0  0
    3.7626    1.1536    2.2237 H    0  0  0  0  0  0  0  0  0  0  0  0
    3.3033    2.7202    1.5421 H    0  0  0  0  0  0  0  0  0  0  0  0
    4.1075    1.5143    0.5244 H    0  0  0  0  0  0  0  0  0  0  0  0
    1.6559    1.5639    0.0126 H    0  0  0  0  0  0  0  0  0  0  0  0
    2.1109    0.0097    0.6897 H    0  0  0  0  0  0  0  0  0  0  0  0
   -0.0189    0.8295    1.7244 H    0  0  0  0  0  0  0  0  0  0  0  0
    0.7958    2.3038    2.2719 H    0  0  0  0  0  0  0  0  0  0  0  0
    1.2529    0.7365    2.9535 H    0  0  0  0  0  0  0  0  0  0  0  0
  1  2  1  0  0  0  0
  1  4  1  0  0  0  0
  1  5  1  0  0  0  0
  1  6  1  0  0  0  0
  2  3  1  0  0  0  0
  2  7  1  0  0  0  0
  2  8  1  0  0  0  0
  3  9  1  0  0  0  0
  3 10  1  0  0  0  0
  3 11  1  0  0  0  0
M  END
> <COPYRIGHT>
Collection (C) 2016 copyright by the U.S. Secretary of Commerce on behalf of the United States of America. All rights reserved.

> <DATE>
2015-07-01

> <CAS.NUMBER>
74-98-6

> <METHOD>
B3LYP/6-31G*

> <DIPOLE.MOMENT>
0.0556 debye

> <ELECTRONIC.ENERGY>
-119.144240869 hartree

> <IR.FREQUENCIES>
"Frequency (cm-1)"   "Intensity (km/mol)"
227.6047  0.0000
276.9390  0.0007
368.3462  0.1328
757.3971  3.5614
880.6023  0.7571
919.7476  0.0019
941.7757  2.1335
1067.7327  0.4241
1190.4486  1.2529
1228.9477  0.2247
1331.1032  0.0018
1385.9139  5.3042
1433.4013  3.0069
1449.6616  1.5366
1519.8243  0.0204
1520.8211  0.0056
1528.6034  1.5981
1538.0334  10.5632
1544.1954  3.1618
3033.9147  26.9810
3037.9872  35.9220
3042.0782  23.2807
3058.9488  6.8570
3099.1105  0.0708
3108.8687  31.5320
3109.9523  106.5603
3111.2509  57.4793

> <ROTATIONAL.CONSTANTS>
29.43212 GHz
8.35914 GHz
7.40859 GHz

> <SOFTWARE>
Gaussian 09, Revision D.01

> <CONTRIBUTOR>
Avi Newman

$$$$
