%chk=cyclopentane-opt
#n AM1 Opt freq

Optimisation de geometrie

0 1
C          1.19220        2.99590        1.04230
C          2.72550        3.02980        0.93050
C          0.84620        1.48820        1.12930
C          3.16560        1.91570        1.89440
C          2.13130        0.78630        1.66820
H          0.88460        3.50680        1.96430
H          0.68620        3.50010        0.21160
H          3.03380        2.78260       -0.09510
H          3.15520        4.00810        1.17430
H         -0.02370        1.30880        1.77010
H          0.58910        1.09860        0.13760
H          4.19770        1.58510        1.73300
H          3.10260        2.28360        2.92730
H          1.94190        0.21840        2.58530
H          2.50910        0.07010        0.92920





