%chk=alizarine
#n ZINDO(NSTATE=10) pop=full gfinput

alizarine

1 0
C         -2.42360        0.55420       -0.13530
C         -2.09090       -0.80940       -0.01600
C         -1.36690        1.60930       -0.15940
C         -3.76640        0.93290       -0.23360
C         -0.67510       -1.24280        0.09040
C         -3.10530       -1.77500        0.00370
C          0.37330       -0.21550        0.06770
O         -0.39970       -2.45310        0.19610
C          0.04400        1.16320       -0.05270
C          1.72440       -0.61170        0.16740
C          1.05450        2.11520       -0.07200
O         -1.66410        2.79640       -0.26440
C         -4.43890       -1.38790       -0.09460
C         -4.76960       -0.03300       -0.21340
C          2.39390        1.72420        0.02670
C          2.74020        0.38360        0.14540
O          4.01770       -0.06250        0.24560
O          2.11480       -1.88430        0.28340
H         -3.99600        1.98920       -0.32510
H         -2.82540       -2.81890        0.09690
H          0.78340        3.16090       -0.16510
H         -5.22290       -2.13980       -0.07900
H         -5.81110        0.26670       -0.29030
H          3.18160        2.47540        0.01100
H          4.61990        0.69820        0.22050
H          1.28240       -2.42950        0.28100



