95
	Energy:     242.7533458
Cl        -4.99927       -2.95531       -4.24899
O         -3.82684       -7.09414       -3.35710
O         -1.04229       -7.89194       -4.50505
O         -1.77041       -4.45630       -3.88233
N         -6.41609       -7.72001       -4.60414
N         -2.39481      -10.61956       -0.22049
C         -7.74353       -8.36062       -4.87792
C         -8.42277       -8.81090       -3.55350
C         -7.77400       -8.04130       -2.37996
C         -6.32325       -8.53034       -2.21630
C         -5.67111       -8.62122       -3.62862
C         -7.71964       -6.54461       -2.75848
C         -6.70442       -6.39012       -3.95274
C         -7.49760       -5.68265       -1.51775
C         -6.50750       -4.79914       -1.32992
C         -5.65060       -7.57432       -5.88360
C         -6.30807       -6.71220       -6.93925
C         -7.09361       -7.25728       -7.89438
C         -7.69900       -6.39684       -8.93799
C         -7.46042       -5.07343       -8.94522
C         -6.58916       -4.47313       -7.90968
C         -6.03973       -5.24886       -6.96658
C         -4.11508       -8.45921       -3.54995
C         -3.48431       -9.27266       -2.41027
C         -3.41262      -10.69647       -2.40753
C         -3.85703      -11.49481       -3.48557
C         -3.76476      -12.89018       -3.41666
C         -3.22921      -13.50799       -2.28664
C         -2.77309      -12.73880       -1.21958
C         -2.85602      -11.34517       -1.27204
C         -2.43970       -9.26905       -0.21372
C         -2.97511       -8.58096       -1.29199
C          0.04266       -7.14654       -4.78219
C          0.75715       -7.38636       -5.96236
C          1.89434       -6.64656       -6.26383
C          2.34174       -5.65208       -5.38827
C          3.49428       -4.91724       -5.69841
C          3.94781       -3.92282       -4.83250
C          3.25539       -3.65021       -3.65232
C          2.10379       -4.37141       -3.32830
C          1.63088       -5.38625       -4.18931
C          0.46587       -6.13927       -3.88750
C         -0.30797       -5.86590       -2.64121
C         -1.41644       -4.99975       -2.70147
C         -2.13293       -4.68482       -1.53749
C         -1.74715       -5.21148       -0.30636
C         -0.64090       -6.06604       -0.22149
C         -0.24688       -6.58484        1.02106
C          0.85415       -7.43817        1.10766
C          1.56804       -7.78290       -0.04116
C          1.19151       -7.27178       -1.28437
C          0.08603       -6.40602       -1.39304
H         -8.40215       -7.61151       -5.37680
H         -7.67938       -9.22998       -5.56884
H         -9.51797       -8.64046       -3.63195
H         -8.26016       -9.89597       -3.37076
H         -8.35353       -8.20550       -1.44538
H         -6.25926       -9.52540       -1.72402
H         -5.79317       -7.80412       -1.55946
H         -8.74064       -6.28519       -3.11875
H         -5.75441       -5.95091       -3.63779
H         -7.14415       -5.64378       -4.64450
H         -8.21211       -5.80398       -0.70803
H         -5.74533       -4.59608       -2.06191
H         -6.45767       -4.25091       -0.39478
H         -7.28602       -8.32488       -7.90471
H         -8.33086       -6.83936       -9.69961
H         -7.89915       -4.44427       -9.71183
H         -6.39107       -3.40499       -7.91742
H         -5.39546       -4.80950       -6.21576
H         -3.66362       -8.79076       -4.51381
H         -4.26301      -11.06008       -4.38500
H         -4.10829      -13.49578       -4.24435
H         -3.16025      -14.58754       -2.23885
H         -2.35175      -13.22496       -0.34767
H         -2.06931       -8.72280        0.64115
H         -3.00856       -7.50387       -1.23581
H         -3.06626       -6.85426       -3.93922
H          0.42896       -8.15669       -6.64925
H          2.43040       -6.85316       -7.18219
H          4.04177       -5.11612       -6.61170
H          4.83937       -3.36176       -5.07871
H          3.61243       -2.87618       -2.98563
H          1.59034       -4.13333       -2.40529
H         -2.98752       -4.02097       -1.58545
H         -2.31057       -4.94966        0.58240
H         -0.79178       -6.32872        1.92235
H          1.15470       -7.83488        2.06812
H          2.41878       -8.44646        0.03027
H          1.76467       -7.55675       -2.15652
H         -1.35805       -8.57490       -5.11484
H         -2.49241       -3.82143       -3.94746
H         -5.85102       -9.66864       -3.96776
H         -4.65657       -7.11613       -5.70929
H         -5.43033       -8.57678       -6.31519
