42
	Energy:     242.7533458
X   0.07895	-6.002585	-3.264355
X	-1.40635	-6.17412	-4.19369
O         -1.04229       -7.89194       -4.50505
O         -1.77041       -4.45630       -3.88233
C          0.04266       -7.14654       -4.78219
C          0.75715       -7.38636       -5.96236
C          1.89434       -6.64656       -6.26383
C          2.34174       -5.65208       -5.38827
C          3.49428       -4.91724       -5.69841
C          3.94781       -3.92282       -4.83250
C          3.25539       -3.65021       -3.65232
C          2.10379       -4.37141       -3.32830
C          1.63088       -5.38625       -4.18931
C          0.46587       -6.13927       -3.88750
C         -0.30797       -5.86590       -2.64121
C         -1.41644       -4.99975       -2.70147
C         -2.13293       -4.68482       -1.53749
C         -1.74715       -5.21148       -0.30636
C         -0.64090       -6.06604       -0.22149
C         -0.24688       -6.58484        1.02106
C          0.85415       -7.43817        1.10766
C          1.56804       -7.78290       -0.04116
C          1.19151       -7.27178       -1.28437
C          0.08603       -6.40602       -1.39304
H          0.42896       -8.15669       -6.64925
H          2.43040       -6.85316       -7.18219
H          4.04177       -5.11612       -6.61170
H          4.83937       -3.36176       -5.07871
H          3.61243       -2.87618       -2.98563
H          1.59034       -4.13333       -2.40529
H         -2.98752       -4.02097       -1.58545
H         -2.31057       -4.94966        0.58240
H         -0.79178       -6.32872        1.92235
H          1.15470       -7.83488        2.06812
H          2.41878       -8.44646        0.03027
H          1.76467       -7.55675       -2.15652
H         -1.35805       -8.57490       -5.11484
H         -2.49241       -3.82143       -3.94746
X   0   0   0
X   1   0   0
X   0   1   0
X   0   0   1
