%chk=1-2-ethanediol-opt
# hf/6-31G* opt

Optimisation de geometrie

0 1
C          1.03790        2.15540        1.62300
O          1.65690        2.07500        2.90940
C          1.33930        0.83600        0.92900
O          2.73560        0.63330        0.80720
H          1.46170        2.98160        1.03360
H         -0.04970        2.30750        1.70900
H          1.69720        2.96500        3.28820
H          0.92080        0.83980       -0.08300
H          0.86090        0.01770        1.49230
H          3.09270        0.80530        1.69510





