%chk=1-3-propanediol-opt
# hf/6-31G* Opt=modredundant

Optimisation de geometrie

0 1
C          1.00030        2.05050        1.22980
O          1.61670        3.21580        0.66190
C          1.98420        0.88950        1.13540
C          3.29810        1.14690        1.88510
O          4.11360        2.12080        1.25910
H          0.07030        1.81090        0.69240
H          0.74210        2.23170        2.28550
H          1.04890        3.98120        0.83610
H          2.21020        0.68670        0.08120
H          1.49290       -0.00370        1.54530
H          3.88980        0.22500        1.92260
H          3.06830        1.42320        2.93150
H          3.52080        2.86090        1.03740

2 1 3 4 S 36 10.0

