%chk=bi-phenyl-opt
# hf/6-31G* Opt=modredundant

Optimisation de geometrie

0 1
C         -2.94290       -0.65540        0.83990
C         -1.55450       -0.52880        0.85110
C         -0.90760        0.41310        0.03330
C         -1.70040        1.22490       -0.79580
C         -3.08890        1.10000       -0.80670
C         -3.71690        0.15880        0.01090
C          0.57210        0.54690        0.04320
C          1.18440        1.80790       -0.05660
C          2.57270        1.93400       -0.05020
C          3.38140        0.80110        0.05760
C          2.78810       -0.45860        0.15840
C          1.39970       -0.58380        0.15060
H          0.94920       -1.57120        0.20180
H         -3.42130       -1.38580        1.48730
H         -0.96390       -1.14900        1.51980
H         -1.22050        1.94190       -1.45620
H         -3.68050        1.73350       -1.46260
H         -4.79910        0.06060        0.00240
H          0.56430        2.69820       -0.11400
H          3.02320        2.92070       -0.12080
H          4.46370        0.89900        0.06290
H          3.40770       -1.34840        0.23410

2 1 4 5 S 36 10.0
