%chk=cyclobutane-opt
# hf/6-31G* opt 

Optimisation de geometrie

0 1
C          1.82610        2.83400        1.05480
C          0.68480        1.79870        0.85560
C          1.72680        0.66760        1.07580
C          2.84980        1.69880        0.77800
H          1.87910        3.18150        2.09260
H          1.84300        3.70860        0.39590
H          0.30830        1.80590       -0.17340
H         -0.17090        1.84470        1.53750
H          1.66280       -0.21750        0.43420
H          1.74890        0.33670        2.12020
H          3.15110        1.67490       -0.27530
H          3.75280        1.66320        1.39660





