%chk=binap-dedoubl-opt-freq
#n AM1 freq

UV-spectra

0 1
 Cl       -5.124341584935     -3.604499534993     -3.410618574376
 O        -4.042003294690     -8.071797482661     -1.774537766774
 O        -1.174683251770     -7.993501776658     -1.102317280393
 O        -2.948878265072     -5.445820379485     -2.739858916047
 N        -5.804134198331     -7.412360737855     -4.251094942186
 N        -3.525601306683    -13.039116265534     -1.813970751572
 C        -7.054974444520     -7.602757018504     -5.074987822441
 C        -8.186864186442     -8.231406286877     -4.257841014856
 C        -7.833695360652     -8.132153347758     -2.776994297671
 C        -6.621313120887     -9.021150439507     -2.519606919337
 C        -5.524502892414     -8.744183362975     -3.568953275123
 C        -7.449306078348     -6.671544901148     -2.497256941617
 C        -6.100394022406     -6.392364339795     -3.179986512469
 C        -7.391164233865     -6.354931807439     -1.045037616635
 C        -6.848478529243     -5.236656298507     -0.566655424509
 C        -4.660333812282     -6.982256410284     -5.129173421426
 C        -5.050383372729     -6.214980347617     -6.351373888624
 C        -5.174651981879     -6.887848867622     -7.576211889898
 C        -5.459085342365     -6.175864588784     -8.736888685343
 C        -5.619856597567     -4.788513123714     -8.682966310183
 C        -5.491836351733     -4.120382427845     -7.467924539515
 C        -5.204483834392     -4.826907615305     -6.297481558984
 C        -4.109533693815     -8.878123753135     -2.934182826557
 C        -3.901410622756    -10.327080649360     -2.566656191326
 C        -3.563327079137    -11.299888775902     -3.561316875995
 C        -3.383942269715    -10.986400415978     -4.933378429543
 C        -3.063611491222    -11.960753077404     -5.846698854939
 C        -2.906636436427    -13.303505682982     -5.433182802567
 C        -3.061835434614    -13.650111117361     -4.115176842841
 C        -3.390238244441    -12.656559120086     -3.136352212483
 C        -3.821899343583    -12.105454018744     -0.930108079118
 C        -4.022461594921    -10.727935345664     -1.255418532179
 C        -0.505948720798     -7.815696945546     -2.297823794268
 C        -0.062479006029     -8.945078459715     -3.040851329907
 C         0.534161661465     -8.766565288700     -4.260803208937
 C         0.704419904978     -7.461828935810     -4.797014954285
 C         1.301646398751     -7.266762956449     -6.072739268731
 C         1.460763356810     -6.003166715436     -6.584147741829
 C         1.029893970292     -4.877396778555     -5.841856878871
 C         0.454042708851     -5.037597426795     -4.606164047987
 C         0.275920683864     -6.335629882865     -4.047420473251
 C        -0.318935065045     -6.518674010339     -2.759306541001
 C        -0.700824779791     -5.352516180443     -1.957759723690
 C        -1.986815026079     -4.822616228732     -1.998054742248
 C        -2.319394084748     -3.645781955568     -1.258657699396
 C        -1.382092104721     -3.049683905252     -0.462638297176
 C        -0.068187650922     -3.586280182694     -0.359031901085
 C         0.905421654507     -2.981986986124      0.480259270372
 C         2.173459995727     -3.501696719594      0.570796924457
 C         2.520908644430     -4.650095620612     -0.177912782580
 C         1.597741055768     -5.252545076022     -0.996902083953
 C         0.274821152874     -4.739137012554     -1.110829000436
 H        -7.360028415244     -6.582862131174     -5.445582296644
 H        -6.798255174682     -8.244726498912     -5.961878946080
 H        -9.141143944563     -7.687196651789     -4.472835775633
 H        -8.326419407178     -9.302768514179     -4.550161679594
 H        -8.695259775534     -8.449180840054     -2.138074196289
 H        -6.903774804347    -10.102020588496     -2.580745917315
 H        -6.220848886923     -8.815566841158     -1.491139633368
 H        -8.230831958539     -6.004606295044     -2.964176188776
 H        -5.264216419771     -6.445478647103     -2.422175264799
 H        -6.047253580621     -5.305966724825     -3.603693241277
 H        -7.851521088111     -7.104317731707     -0.381765095102
 H        -6.377652467966     -4.476922275688     -1.214833426310
 H        -6.836470208440     -5.012237206046      0.508194398795
 H        -5.034417436468     -7.977939803632     -7.625619525440
 H        -5.551453827799     -6.703603663633     -9.697098483640
 H        -5.842095250613     -4.227543973680     -9.603014874960
 H        -5.610493574598     -3.026832020018     -7.419030434857
 H        -5.096813976048     -4.271808230535     -5.316255798222
 H        -3.313435451529     -8.570620905796     -3.670614700657
 H        -3.488229919579     -9.942767233374     -5.265808767457
 H        -2.920759156318    -11.707218449506     -6.908109610577
 H        -2.653081903245    -14.067742254801     -6.183932604766
 H        -2.934013253908    -14.695039116826     -3.788445458200
 H        -3.918162863204    -12.436444070728      0.121340591495
 H        -4.265653513895    -10.005182299628     -0.460840314508
 H        -3.222896743405     -7.546246162379     -1.816350409983
 H        -0.199497103461     -9.950883109361     -2.617531732500
 H         0.890064574870     -9.629972944792     -4.843277228177
 H         1.633602270101     -8.150315194263     -6.638007487357
 H         1.922293569144     -5.849657791924     -7.570513203448
 H         1.162327330202     -3.872346601076     -6.269548373300
 H         0.115040348205     -4.166022754931     -4.022523403064
 H        -3.337846713017     -3.233208823833     -1.367794391698
 H        -1.628460189453     -2.142893193820      0.110944379101
 H         0.620522595113     -2.088409237120      1.055875226726
 H         2.927901058876     -3.035356876066      1.220161558272
 H         3.540812285094     -5.053454463752     -0.095357209625
 H         1.867295577554     -6.145557729164     -1.581507615141
 H        -0.948839569080     -8.873260441684     -0.767439455101
 H        -3.700381840173     -4.777553414704     -2.921836070641
 H        -5.578618414871     -9.527269984113     -4.384479626796
 H        -3.963680993324     -6.355882317801     -4.492380591744
 H        -4.120064259594     -7.916929405594     -5.457868849013





