%chk=anthraquinone-opt-zindo
#n ZINDO(NSTATE=10) pop=full gfinput

UV-spectra

0 1
 C        -0.670680647452     -1.261623758860      0.104044809763
 C        -2.074230803761     -0.813661156603     -0.016481473561
 C         0.373257809694     -0.215092112799      0.093362902252
 O        -0.381789670033     -2.462387515273      0.210396631689
 C        -1.357673213323      1.593449810620     -0.146803092585
 C         0.045883682337      1.145477580003     -0.026369007656
 O        -1.646558144097      2.794204275210     -0.253272079077
 C        -2.401604790173      0.546907649069     -0.136213183821
 C        -3.093798769552     -1.772807651283     -0.010507324818
 C         1.065457552252      2.104616657788     -0.032429671704
 C        -3.743762381911      0.928450661041     -0.248266818686
 C         1.715420202671     -0.596642224887      0.205331053601
 C        -4.428933954763     -1.383874280865     -0.122649409768
 C        -4.753729328000     -0.034023320782     -0.241460381489
 C         2.725392268217      0.365823542689      0.198438361635
 C         2.400598164025      1.715675435986      0.079626472497
 H        -2.825864835071     -2.838508444533      0.083953229581
 H         0.797524749938      3.170318065881     -0.126888897324
 H        -3.989965465991      1.999466683545     -0.341748076688
 H         1.961621462335     -1.667658659512      0.298815069490
 H        -5.223080614891     -2.145781371852     -0.116943842225
 H        -5.805881514524      0.276337021162     -0.330097294939
 H         3.777548147619      0.055456929752      0.287008367634
 H         3.194750094453      2.477576184503      0.073853656199





