%chk=1-4-butanediol-open-opt
#n AM1 Opt

Optimisation de geometrie

0 1
C          1.86044        1.25630        1.75226
C          1.19501        1.01015        3.10498
O          0.61456       -0.28906        3.15807
C          3.17259        0.47460        1.58556
C          4.40977        1.31124        1.90304
O          4.94461        1.81958        0.68742
H          2.03540        2.33026        1.61933
H          1.16754        0.93821        0.96397
H          0.38356        1.72792        3.25625
H          1.90135        1.11531        3.93431
H          1.31089       -0.94627        3.01125
H          3.23222        0.11378        0.55156
H          3.17160       -0.40732        2.23380
H          5.17359        0.68166        2.37058
H          4.19425        2.15114        2.57076
H          5.88910        1.99830        0.83809





