#n AM1 Opt

Optimisation of chloromethane using the AM1 hamiltonian

0 1
C         -0.10335       -0.39455       -0.05129
H          0.96642       -0.68674       -0.01969
H         -0.61607       -0.95509       -0.85979
Cl        -0.23201        1.35056       -0.36639
H         -0.58011       -0.63069        0.92221




