%chk=anthracene-1-4-opt
#n AM1 Opt

Geometry optimization

0 1
C          0.04676        1.46576       -0.03790
C          1.30900        0.70526       -0.01632
C         -1.25193        0.73611       -0.03353
O          0.11891        2.68892       -0.04836
C          0.02090       -1.41933        0.04650
C         -1.26460       -0.66670        0.03430
O          0.07131       -2.64340        0.06990
C          1.29657       -0.68169        0.01872
C          2.53372        1.39130       -0.03147
C         -2.50156       -1.34000        0.07953
C          2.50882       -1.38960        0.03011
C         -2.47638        1.43145       -0.08504
C          3.73790        0.68599       -0.01690
C          3.72543       -0.70603        0.01170
C         -3.69342        0.74989       -0.05049
C         -3.70603       -0.63680        0.03830
H          2.55265        2.47995       -0.05474
H          2.50828       -2.47841        0.05391
H          4.68290        1.22410       -0.02861
H          4.66065       -1.26102        0.02091
H         -4.66076       -1.15485        0.07066
H         -4.63855        1.28482       -0.08941
O         -2.51132        2.79376       -0.17822
H         -3.42439        3.11936       -0.20251
O         -2.56144       -2.70154        0.17129
H         -3.48018       -3.00950        0.20836




