%chk=anthracene-1-5-opt-zindo
#n ZINDO(NSTATE=10) pop=full gfinput

UV-spectra

0 1
 C        -0.014077091336      1.472194610473      0.000285372642
 C         1.261598437353      0.745604049299      0.000169293134
 C        -1.270850543170      0.688543315866      0.000108278989
 O        -0.061032809902      2.716246912649      0.000545529579
 C         0.011286028975     -1.450331029584     -0.000362454181
 C        -1.264390159650     -0.723740436216     -0.000201470406
 O         0.058243558313     -2.694383216136     -0.000623677292
 C         1.268059372435     -0.666679234594     -0.000141463696
 C         2.501173585095      1.415818780756      0.000360204895
 C        -2.503966567648     -1.393954120050     -0.000350234416
 C         2.467739356637     -1.373248988776     -0.000254332399
 C        -2.470529872211      1.395113706699      0.000260790075
 C         3.718465765105      0.688099002130      0.000243595559
 C         3.692068977357     -0.692101496251     -0.000060724519
 C        -3.694860170723      0.713967411986      0.000110251050
 C        -3.721258070764     -0.666232939439     -0.000191956789
 H         2.447003795575     -2.475982842146     -0.000499720480
 H        -2.449793599186      2.497847592907      0.000502235512
 H         4.665213506211      1.249333428519      0.000401359818
 H         4.633394008140     -1.263866248772     -0.000153550764
 H        -4.668006176526     -1.227466697664     -0.000315960575
 H        -4.636184575912      1.285733080884      0.000234553052
 O         2.680505230899      2.768302025668      0.000666000447
 H         1.828071246462      3.233657942996      0.000730467726
 O        -2.683302369457     -2.746437012597     -0.000647061628
 H        -1.830870862070     -3.211797598607     -0.000755325332





