%chk=anthracene-2-7-opt
#n AM1 Opt

Geometry optimization

0 1
C          0.00418        1.44195        0.00028
C          1.27422        0.68824        0.00015
C         -1.27280        0.70006        0.00011
O          0.00986        2.66691        0.00052
C         -0.00923       -1.44771       -0.00035
C         -1.27894       -0.69447       -0.00019
O         -0.01492       -2.67325       -0.00064
C          1.26742       -0.70629       -0.00016
C          2.49107        1.37994        0.00035
C         -2.49618       -1.39026       -0.00034
C          2.47815       -1.41335       -0.00028
C         -2.48317        1.40302        0.00025
C          3.68648        0.66825        0.00024
C          3.69214       -0.72330       -0.00008
C         -3.68514        0.70246        0.00010
C         -3.70372       -0.68898       -0.00019
H          2.51104        2.46784        0.00060
H         -2.50631       -2.47911       -0.00057
H          2.47817       -2.50224       -0.00052
H         -2.49305        2.49106        0.00048
H          4.62229       -1.28412       -0.00017
H         -4.63903       -1.24115       -0.00030
O          4.84768        1.38090        0.00045
H          5.60069        0.76688        0.00035
O         -4.83967        1.42585        0.00026
H         -5.59835        0.81885        0.00013




