%chk=anthracene-2-3-opt-zindo
#n ZINDO(NSTATE=10) pop=full gfinput

UV-spectra

0 1
 C         0.024001076459      1.480032325210     -0.019676019896
 C         1.285101802385      0.709347351898     -0.010144993410
 C        -1.235541092654      0.706842844686     -0.004485774770
 O         0.021620245587      2.719578631431     -0.039441881350
 C         0.024954490333     -1.466651974724      0.025403649602
 C        -1.235088397635     -0.694177862360      0.016733653982
 O         0.023376038700     -2.706221940086      0.043713123940
 C         1.285556027111     -0.695221895445      0.011242691429
 C         2.501444527083      1.401712172949     -0.022899125730
 C        -2.448207918913     -1.393468259630      0.030354857663
 C         2.502346314011     -1.386868083187      0.019511607906
 C        -2.449111954576      1.405443592161     -0.011857253140
 C         3.709834338851      0.704345253086     -0.014482412027
 C         3.710284854108     -0.688786628540      0.006700767076
 C        -3.663009897716      0.714176595612      0.001737987122
 C        -3.662552347230     -0.702890598432      0.023066102928
 H         2.490157785017      2.504469306708     -0.039698387647
 H        -2.432862681150     -2.496078319621      0.046901172414
 H         2.491772772545     -2.489632892881      0.036272221576
 H        -2.434479338214      2.508060616006     -0.028584554954
 H         4.661001140404      1.258031831711     -0.024647937823
 H         4.661809587491     -1.241910858631      0.013388480525
 O        -4.884334431865      1.338683347439     -0.004406719110
 H        -4.727464150778      2.295839238738     -0.019595188285
 O        -4.883473626300     -1.328088908586      0.035640587142
 H        -4.725985163054     -2.285164885512      0.049403344837





