%chk=dedoubl-s-opt-freq
#n PM6 freq

UV-spectra

0 1
 O        -2.781640351627     -5.549606450272     -3.682013407648
 O        -0.966986022030     -8.934056580790     -3.866668291571
 C        -1.632823790714     -5.479527034337     -4.343854996652
 C        -1.619224726907     -4.674752404170     -5.541477488280
 C        -0.494027133574     -4.605475265555     -6.309374154553
 C         0.690171652068     -5.323585816945     -5.940343985610
 C         1.867213033770     -5.259241282915     -6.746501469435
 C         3.005523608711     -5.934891114709     -6.381163013537
 C         3.018008201464     -6.706237846107     -5.184249574442
 C         1.900241799278     -6.786693560725     -4.392280467808
 C         0.692997385222     -6.099826991070     -4.749821765009
 C        -0.490307335058     -6.168965996130     -3.940816288548
 C        -0.455334725065     -6.942220497981     -2.689393889637
 C        -0.612192162718     -8.319513206214     -2.677338298991
 C        -0.449344148780     -9.107553437219     -1.499198597373
 C        -0.166703767090     -8.481109815989     -0.313434951219
 C        -0.045192460632     -7.057543496983     -0.252539309940
 C         0.224857589531     -6.395979887809      0.988374418335
 C         0.343460390334     -5.030760019633      1.039405219951
 C         0.200193490580     -4.254196225277     -0.148400940366
 C        -0.055637401444     -4.861715343251     -1.350531728725
 C        -0.188572503550     -6.286571689189     -1.437684232692
 H        -2.523032507057     -4.123477242286     -5.793395772013
 H        -0.473807837124     -3.999968372983     -7.215403178178
 H         1.843252441225     -4.661347056310     -7.655991394160
 H         3.904849691054     -5.890317528724     -6.988793727073
 H         3.932478966842     -7.228579487185     -4.909086832033
 H         1.913166921596     -7.373418693111     -3.474531735211
 H        -0.556231857866    -10.187710644580     -1.557939428698
 H         0.333224962590     -6.999906464982      1.887172413145
 H         0.546938980368     -4.519398456777      1.977794529459
 H         0.296177107645     -3.171430879810     -0.081001807307
 H        -0.167550065618     -4.273742097637     -2.264727610164
 H        -3.442522543139     -4.322345701057     -3.609099376660
 H        -0.875558932241     -9.916363553057     -3.799659424880
 Cl       -4.335715414724     -3.231309520000     -3.676237552523
 O        -3.856729878401     -7.022545194471     -1.969957398266
 N        -5.821799763250     -7.258324243336     -4.260283150788
 N        -3.165494946113    -11.575938285504     -0.064945748226
 C        -7.117704638564     -7.731883598165     -4.941236196461
 C        -8.162948971290     -8.126149306535     -3.885941010118
 C        -7.702449121833     -7.623739165756     -2.503162162169
 C        -6.421086169627     -8.373815188131     -2.100497553502
 C        -5.401768071479     -8.366858184229     -3.260212385308
 C        -7.380439675249     -6.109657359178     -2.622750115403
 C        -6.108205854236     -5.963237229885     -3.489922925928
 C        -7.219680088002     -5.450747676217     -1.276343516610
 C        -6.760434730562     -4.212751309517     -1.112319800944
 C        -4.733031689640     -7.025484435396     -5.306637470343
 C        -5.234268785888     -6.428763866194     -6.591141950177
 C        -5.473158852793     -7.261316304113     -7.697892228471
 C        -5.907868314360     -6.711090121113     -8.905551114878
 C        -6.104660873038     -5.330173157144     -9.018830181641
 C        -5.856021359537     -4.499806887708     -7.922456056196
 C        -5.418520046759     -5.044881589079     -6.711548063992
 C        -3.938988584488     -8.213323238818     -2.727517750273
 C        -3.648274336206     -9.399461194020     -1.817240331462
 C        -3.381483404133    -10.701586063085     -2.363497150442
 C        -3.301752842616    -10.987001461164     -3.762107378797
 C        -3.051096560338    -12.261824711379     -4.204734411892
 C        -2.861656513694    -13.330114909026     -3.278522188579
 C        -2.908556868057    -13.094477718885     -1.929488150244
 C        -3.159592183673    -11.767625597964     -1.443728070184
 C        -3.381404424064    -10.348149946318      0.397117945390
 C        -3.632726666396     -9.225431892611     -0.453901817375
 H        -7.501697224871     -6.905734493827     -5.583354323031
 H        -6.889840314880     -8.579961918859     -5.619348846039
 H        -9.149942223905     -7.699495779358     -4.147880540620
 H        -8.308770905012     -9.222707640064     -3.865290464888
 H        -8.500991433966     -7.792881555506     -1.748234574550
 H        -6.637703863741     -9.413178148622     -1.797263322875
 H        -5.969765542257     -7.880739584268     -1.206670104271
 H        -8.234408388802     -5.600676829489     -3.140579930544
 H        -5.208457634493     -5.746951591173     -2.837102028106
 H        -6.201697949756     -5.112797996294     -4.197717598919
 H        -7.525511683688     -6.058227946544     -0.423943249725
 H        -6.426510832080     -3.569562564517     -1.920225867879
 H        -6.657509045191     -3.744241481375     -0.142672786662
 H        -5.303061518815     -8.333521851102     -7.627523784906
 H        -6.086016261259     -7.357458168733     -9.764178676317
 H        -6.440861923922     -4.902756516875     -9.962752064456
 H        -5.992297512324     -3.420976983602     -8.009543918700
 H        -5.203740071743     -4.379774275141     -5.867958899795
 H        -3.186167339951     -8.175520662306     -3.558401730281
 H        -3.414934571124    -10.171481531786     -4.475458822790
 H        -2.986075053227    -12.479992375491     -5.270448585439
 H        -2.672563397328    -14.331598694120     -3.665165946875
 H        -2.756066216391    -13.889460537278     -1.195977791816
 H        -3.365287297161    -10.213442818384      1.487024378671
 H        -3.787211230111     -8.230635310396     -0.021547178144
 H        -3.068377359652     -6.422657405266     -2.340196193919
 H        -5.460259500886     -9.339524499425     -3.816235828500
 H        -3.934573192630     -6.335828753619     -4.841184255547
 H        -4.192572451694     -7.976503506398     -5.506581038373
 H        -0.032634380176     -9.059039083471      0.600690418619





