%chk=2-methyl-1-Propene-opt
#n AM1 Opt freq

Optimisation de geometrie

0 1
C          0.95830        0.99220        1.37960
C          2.09920        1.89230        0.97370
C          3.47640        1.43000        1.38100
C          1.90210        3.02720        0.29570
H          1.07790       -0.01340        0.95270
H          0.92550        0.86430        2.47060
H         -0.00890        1.38730        1.05410
H          3.55030        1.32370        2.47240
H          3.70220        0.44170        0.95690
H          4.25410        2.12670        1.05360
H          2.72870        3.67140        0.00580
H          0.90660        3.35420        0.00510





