%chk=1-4-butanediol-opt
#n AM1 Opt

Optimisation de geometrie

0 1
C          1.61070        1.25450        1.95620
C          1.12870        2.38020        1.03030
O          1.49730        3.67670        1.46100
C          3.12020        0.94630        1.94560
C          4.05140        2.01040        2.52150
O          4.19450        3.08620        1.57830
H          1.08250        0.33320        1.67120
H          1.29150        1.49460        2.98000
H          0.03280        2.36880        1.00550
H          1.47560        2.18200        0.00040
H          2.47240        3.71280        1.40200
H          3.45480        0.72290        0.92300
H          3.28710        0.03210        2.53110
H          5.03920        1.56670        2.71120
H          3.65760        2.38570        3.47780
H          4.76340        3.76350        1.97600





